$DATA1 SOURCE='PrimeSim HSPICE' VERSION='T-2022.06-3 linux64' PARAM_COUNT=0
.TITLE '*==================== step6a_jayakishan_fix.sp ===================='
 tphi2            trst1            d_rst_phi        sout_dly_c2     
 early_flag       temper           alter#          
  2.015e-09        1.995e-09       -2.000e-11        1.041e-09      
    0.             2.500e+01       1               
