$DATA1 SOURCE='PrimeSim HSPICE' VERSION='T-2022.06-3 linux64' PARAM_COUNT=0
.TITLE '2ghz'
 pavg_1ghz        pavg_2ghz        temper           alter#          
  5.940e-05        5.940e-05        2.500e+01       2               
